<?xml version="1.0" encoding="UTF-8"?>

<configuration>
    <input>
        <net-file value="grid6_smoke.net.xml"/>
        <route-files value="grid6_smoke.empty.rou.xml"/>
    </input>

    <time>
        <begin value="0"/>
        <end value="3600"/>
    </time>
</configuration>
