<?xml version="1.0" encoding="UTF-8"?>
<!-- Toronto light: 25% jam cap (5219 veh in network, ~13734 veh/ep, scale=27.47x) -->
<routes xmlns:xsi="http://www.w3.org/2001/XMLSchema-instance" xsi:noNamespaceSchemaLocation="http://sumo.dlr.de/xsd/routes_file.xsd">
    <flow id="f0" from="106439" to="20050470" begin="0" end="1000" probability="0.007630" departLane="free" departSpeed="max"/>
    <flow id="f1" from="30053313" to="20052500" begin="0" end="1000" probability="0.007630" departLane="free" departSpeed="max"/>
    <flow id="f2" from="438505" to="103111" begin="0" end="1000" probability="0.007630" departLane="free" departSpeed="max"/>
    <flow id="f3" from="108013" to="20230363" begin="0" end="1000" probability="0.015261" departLane="free" departSpeed="max"/>
    <flow id="f4" from="30091212" to="104545" begin="0" end="1000" probability="0.007630" departLane="free" departSpeed="max"/>
    <flow id="f5" from="107875" to="106062" begin="0" end="1000" probability="0.015261" departLane="free" departSpeed="max"/>
    <flow id="f6" from="9468156" to="30020081" begin="0" end="1000" probability="0.007630" departLane="free" departSpeed="max"/>
    <flow id="f7" from="106971" to="106640" begin="0" end="1000" probability="0.007630" departLane="free" departSpeed="max"/>
    <flow id="f8" from="108438" to="106155" begin="0" end="1000" probability="0.007630" departLane="free" departSpeed="max"/>
    <flow id="f9" from="105385" to="30017744" begin="0" end="1000" probability="0.007630" departLane="free" departSpeed="max"/>
    <flow id="f10" from="30085821" to="20051848" begin="0" end="1000" probability="0.007630" departLane="free" departSpeed="max"/>
    <flow id="f11" from="106979" to="30021445" begin="0" end="1000" probability="0.007630" departLane="free" departSpeed="max"/>
    <flow id="f12" from="30145862" to="20052069" begin="0" end="1000" probability="0.015261" departLane="free" departSpeed="max"/>
    <flow id="f13" from="106971" to="6242751" begin="0" end="1000" probability="0.007630" departLane="free" departSpeed="max"/>
    <flow id="f14" from="107594" to="30000657" begin="0" end="1000" probability="0.015261" departLane="free" departSpeed="max"/>
    <flow id="f15" from="105076" to="30020022" begin="0" end="1000" probability="0.007630" departLane="free" departSpeed="max"/>
    <flow id="f16" from="108013" to="9468017" begin="0" end="1000" probability="0.007630" departLane="free" departSpeed="max"/>
    <flow id="f17" from="9722554" to="9722554" begin="0" end="1000" probability="0.007630" departLane="free" departSpeed="max"/>
    <flow id="f18" from="6242777" to="6242779" begin="0" end="1000" probability="0.015261" departLane="free" departSpeed="max"/>
    <flow id="f19" from="105384" to="20230363" begin="0" end="1000" probability="0.007630" departLane="free" departSpeed="max"/>
    <flow id="f20" from="107020" to="30001509" begin="0" end="1000" probability="0.007630" departLane="free" departSpeed="max"/>
    <flow id="f21" from="5479011" to="105161" begin="0" end="1000" probability="0.007630" departLane="free" departSpeed="max"/>
    <flow id="f22" from="10179994" to="3121347" begin="0" end="1000" probability="0.007630" departLane="free" departSpeed="max"/>
    <flow id="f23" from="14038255" to="103479" begin="0" end="1000" probability="0.007630" departLane="free" departSpeed="max"/>
    <flow id="f24" from="105091" to="6242783" begin="0" end="1000" probability="0.007630" departLane="free" departSpeed="max"/>
    <flow id="f25" from="3369767" to="6242816" begin="0" end="1000" probability="0.007630" departLane="free" departSpeed="max"/>
    <flow id="f26" from="11466578" to="30002274" begin="0" end="1000" probability="0.007630" departLane="free" departSpeed="max"/>
    <flow id="f27" from="438505" to="6242781" begin="0" end="1000" probability="0.007630" departLane="free" departSpeed="max"/>
    <flow id="f28" from="4346973" to="6242498" begin="0" end="1000" probability="0.007630" departLane="free" departSpeed="max"/>
    <flow id="f29" from="438505" to="106776" begin="0" end="1000" probability="0.007630" departLane="free" departSpeed="max"/>
    <flow id="f30" from="3814815" to="105192" begin="0" end="1000" probability="0.007630" departLane="free" departSpeed="max"/>
    <flow id="f31" from="9392838" to="20051848" begin="0" end="1000" probability="0.007630" departLane="free" departSpeed="max"/>
    <flow id="f32" from="108152" to="30000614" begin="0" end="1000" probability="0.007630" departLane="free" departSpeed="max"/>
    <flow id="f33" from="107733" to="104923" begin="0" end="1000" probability="0.007630" departLane="free" departSpeed="max"/>
    <flow id="f34" from="105163" to="20051228" begin="0" end="1000" probability="0.007630" departLane="free" departSpeed="max"/>
    <flow id="f35" from="4570662" to="30121777" begin="0" end="1000" probability="0.007630" departLane="free" departSpeed="max"/>
    <flow id="f36" from="11484469" to="30017745" begin="0" end="1000" probability="0.007630" departLane="free" departSpeed="max"/>
    <flow id="f37" from="30095850" to="20050470" begin="0" end="1000" probability="0.007630" departLane="free" departSpeed="max"/>
    <flow id="f38" from="106649" to="30080311" begin="0" end="1000" probability="0.007630" departLane="free" departSpeed="max"/>
    <flow id="f39" from="30091213" to="104865" begin="0" end="1000" probability="0.007630" departLane="free" departSpeed="max"/>
    <flow id="f40" from="11466578" to="20052135" begin="0" end="1000" probability="0.015261" departLane="free" departSpeed="max"/>
    <flow id="f41" from="108024" to="103111" begin="0" end="1000" probability="0.007630" departLane="free" departSpeed="max"/>
    <flow id="f42" from="108399" to="30000571" begin="0" end="1000" probability="0.007630" departLane="free" departSpeed="max"/>
    <flow id="f43" from="106816" to="105069" begin="0" end="1000" probability="0.007630" departLane="free" departSpeed="max"/>
    <flow id="f44" from="7206743" to="105912" begin="0" end="1000" probability="0.007630" departLane="free" departSpeed="max"/>
    <flow id="f45" from="107419" to="30073902" begin="0" end="1000" probability="0.007630" departLane="free" departSpeed="max"/>
    <flow id="f46" from="30089904" to="30017744" begin="0" end="1000" probability="0.007630" departLane="free" departSpeed="max"/>
    <flow id="f47" from="30091213" to="14038215" begin="0" end="1000" probability="0.007630" departLane="free" departSpeed="max"/>
    <flow id="f48" from="2809783" to="14669435" begin="0" end="1000" probability="0.007630" departLane="free" departSpeed="max"/>
    <flow id="f49" from="106073" to="105297" begin="0" end="1000" probability="0.007630" departLane="free" departSpeed="max"/>
    <flow id="f50" from="107084" to="105175" begin="0" end="1000" probability="0.007630" departLane="free" departSpeed="max"/>
    <flow id="f51" from="30089911" to="105385" begin="0" end="1000" probability="0.007630" departLane="free" departSpeed="max"/>
    <flow id="f52" from="20050255" to="14038230" begin="0" end="1000" probability="0.007630" departLane="free" departSpeed="max"/>
    <flow id="f53" from="106049" to="104630" begin="0" end="1000" probability="0.007630" departLane="free" departSpeed="max"/>
    <flow id="f54" from="105091" to="30017745" begin="0" end="1000" probability="0.007630" departLane="free" departSpeed="max"/>
    <flow id="f55" from="9637988" to="105297" begin="0" end="1000" probability="0.007630" departLane="free" departSpeed="max"/>
    <flow id="f56" from="20052134" to="14171574" begin="0" end="1000" probability="0.007630" departLane="free" departSpeed="max"/>
    <flow id="f57" from="10179994" to="14171574" begin="0" end="1000" probability="0.007630" departLane="free" departSpeed="max"/>
    <flow id="f58" from="30091212" to="14303964" begin="0" end="1000" probability="0.007630" departLane="free" departSpeed="max"/>
    <flow id="f59" from="3814960" to="30015346" begin="0" end="1000" probability="0.007630" departLane="free" departSpeed="max"/>
    <flow id="f60" from="6547241" to="20050407" begin="0" end="1000" probability="0.007630" departLane="free" departSpeed="max"/>
    <flow id="f61" from="7206749" to="9722577" begin="0" end="1000" probability="0.007630" departLane="free" departSpeed="max"/>
    <flow id="f62" from="20050255" to="30044193" begin="0" end="1000" probability="0.007630" departLane="free" departSpeed="max"/>
    <flow id="f63" from="107478" to="7472038" begin="0" end="1000" probability="0.007630" departLane="free" departSpeed="max"/>
    <flow id="f64" from="30145806" to="30015346" begin="0" end="1000" probability="0.007630" departLane="free" departSpeed="max"/>
    <flow id="f65" from="30145859" to="106016" begin="0" end="1000" probability="0.007630" departLane="free" departSpeed="max"/>
    <flow id="f66" from="6291862" to="20050477" begin="0" end="1000" probability="0.007630" departLane="free" departSpeed="max"/>
    <flow id="f67" from="107055" to="4300673" begin="0" end="1000" probability="0.007630" departLane="free" departSpeed="max"/>
    <flow id="f68" from="9311781" to="20050383" begin="0" end="1000" probability="0.007630" departLane="free" departSpeed="max"/>
    <flow id="f69" from="104545" to="20050431" begin="0" end="1000" probability="0.007630" departLane="free" departSpeed="max"/>
    <flow id="f70" from="107594" to="30080311" begin="0" end="1000" probability="0.007630" departLane="free" departSpeed="max"/>
    <flow id="f71" from="30095850" to="30121854" begin="0" end="1000" probability="0.007630" departLane="free" departSpeed="max"/>
    <flow id="f72" from="6291862" to="9722554" begin="0" end="1000" probability="0.007630" departLane="free" departSpeed="max"/>
    <flow id="f73" from="107054" to="30000574" begin="0" end="1000" probability="0.007630" departLane="free" departSpeed="max"/>
    <flow id="f74" from="104773" to="30001510" begin="0" end="1000" probability="0.007630" departLane="free" departSpeed="max"/>
    <flow id="f75" from="30120535" to="105159" begin="0" end="1000" probability="0.007630" departLane="free" departSpeed="max"/>
    <flow id="f76" from="107594" to="105233" begin="0" end="1000" probability="0.007630" departLane="free" departSpeed="max"/>
    <flow id="f77" from="7471766" to="105573" begin="0" end="1000" probability="0.007630" departLane="free" departSpeed="max"/>
    <flow id="f78" from="30113635" to="9392838" begin="0" end="1000" probability="0.007630" departLane="free" departSpeed="max"/>
    <flow id="f79" from="107873" to="4301120" begin="0" end="1000" probability="0.007630" departLane="free" departSpeed="max"/>
    <flow id="f80" from="106465" to="104799" begin="0" end="1000" probability="0.007630" departLane="free" departSpeed="max"/>
    <flow id="f81" from="105616" to="14303964" begin="0" end="1000" probability="0.007630" departLane="free" departSpeed="max"/>
    <flow id="f82" from="7206749" to="104248" begin="0" end="1000" probability="0.007630" departLane="free" departSpeed="max"/>
    <flow id="f83" from="107906" to="14038255" begin="0" end="1000" probability="0.007630" departLane="free" departSpeed="max"/>
    <flow id="f84" from="3814815" to="106535" begin="0" end="1000" probability="0.007630" departLane="free" departSpeed="max"/>
    <flow id="f85" from="105587" to="30000571" begin="0" end="1000" probability="0.007630" departLane="free" departSpeed="max"/>
    <flow id="f86" from="106304" to="106102" begin="0" end="1000" probability="0.007630" departLane="free" departSpeed="max"/>
    <flow id="f87" from="105385" to="20050470" begin="0" end="1000" probability="0.007630" departLane="free" departSpeed="max"/>
    <flow id="f88" from="3814811" to="6242499" begin="0" end="1000" probability="0.007630" departLane="free" departSpeed="max"/>
    <flow id="f89" from="30089898" to="20050276" begin="0" end="1000" probability="0.007630" departLane="free" departSpeed="max"/>
    <flow id="f90" from="107478" to="9668534" begin="0" end="1000" probability="0.007630" departLane="free" departSpeed="max"/>
    <flow id="f91" from="20052501" to="14303964" begin="0" end="1000" probability="0.007630" departLane="free" departSpeed="max"/>
    <flow id="f92" from="30111170" to="106102" begin="0" end="1000" probability="0.007630" departLane="free" departSpeed="max"/>
    <flow id="f93" from="107594" to="14303964" begin="0" end="1000" probability="0.007630" departLane="free" departSpeed="max"/>
    <flow id="f94" from="107920" to="105616" begin="0" end="1000" probability="0.015261" departLane="free" departSpeed="max"/>
    <flow id="f95" from="30000872" to="30000563" begin="0" end="1000" probability="0.007630" departLane="free" departSpeed="max"/>
    <flow id="f96" from="30111170" to="7472038" begin="0" end="1000" probability="0.007630" departLane="free" departSpeed="max"/>
    <flow id="f97" from="4570662" to="30002264" begin="0" end="1000" probability="0.007630" departLane="free" departSpeed="max"/>
    <flow id="f98" from="108438" to="105579" begin="0" end="1000" probability="0.007630" departLane="free" departSpeed="max"/>
    <flow id="f99" from="30145806" to="105207" begin="0" end="1000" probability="0.007630" departLane="free" departSpeed="max"/>
    <flow id="f100" from="108399" to="30000871" begin="0" end="1000" probability="0.007630" departLane="free" departSpeed="max"/>
    <flow id="f101" from="30091212" to="20050407" begin="0" end="1000" probability="0.007630" departLane="free" departSpeed="max"/>
    <flow id="f102" from="30000678" to="30000584" begin="0" end="1000" probability="0.007630" departLane="free" departSpeed="max"/>
    <flow id="f103" from="105462" to="104040" begin="0" end="1000" probability="0.007630" departLane="free" departSpeed="max"/>
    <flow id="f104" from="107478" to="4346973" begin="0" end="1000" probability="0.015261" departLane="free" departSpeed="max"/>
    <flow id="f105" from="5479011" to="106535" begin="0" end="1000" probability="0.007630" departLane="free" departSpeed="max"/>
    <flow id="f106" from="107594" to="107438" begin="0" end="1000" probability="0.007630" departLane="free" departSpeed="max"/>
    <flow id="f107" from="105462" to="20050477" begin="0" end="1000" probability="0.007630" departLane="free" departSpeed="max"/>
    <flow id="f108" from="30113636" to="5019915" begin="0" end="1000" probability="0.007630" departLane="free" departSpeed="max"/>
    <flow id="f109" from="3121347" to="20050379" begin="0" end="1000" probability="0.007630" departLane="free" departSpeed="max"/>
    <flow id="f110" from="30000633" to="30020038" begin="0" end="1000" probability="0.007630" departLane="free" departSpeed="max"/>
    <flow id="f111" from="105064" to="14038255" begin="0" end="1000" probability="0.007630" departLane="free" departSpeed="max"/>
    <flow id="f112" from="104919" to="20050471" begin="0" end="1000" probability="0.007630" departLane="free" departSpeed="max"/>
    <flow id="f113" from="105095" to="6242498" begin="0" end="1000" probability="0.007630" departLane="free" departSpeed="max"/>
    <flow id="f114" from="438505" to="30044193" begin="0" end="1000" probability="0.007630" departLane="free" departSpeed="max"/>
    <flow id="f115" from="105674" to="104799" begin="0" end="1000" probability="0.007630" departLane="free" departSpeed="max"/>
    <flow id="f116" from="106776" to="14038219" begin="0" end="1000" probability="0.007630" departLane="free" departSpeed="max"/>
    <flow id="f117" from="107594" to="30000684" begin="0" end="1000" probability="0.007630" departLane="free" departSpeed="max"/>
    <flow id="f118" from="30111171" to="30044197" begin="0" end="1000" probability="0.007630" departLane="free" departSpeed="max"/>
    <flow id="f119" from="108385" to="30000683" begin="0" end="1000" probability="0.007630" departLane="free" departSpeed="max"/>
    <flow id="f120" from="107973" to="4301120" begin="0" end="1000" probability="0.007630" departLane="free" departSpeed="max"/>
    <flow id="f121" from="30089898" to="20051520" begin="0" end="1000" probability="0.007630" departLane="free" departSpeed="max"/>
    <flow id="f122" from="106608" to="105565" begin="0" end="1000" probability="0.007630" departLane="free" departSpeed="max"/>
    <flow id="f123" from="5171251" to="6242783" begin="0" end="1000" probability="0.007630" departLane="free" departSpeed="max"/>
    <flow id="f124" from="438505" to="105649" begin="0" end="1000" probability="0.007630" departLane="free" departSpeed="max"/>
    <flow id="f125" from="30121799" to="14171574" begin="0" end="1000" probability="0.007630" departLane="free" departSpeed="max"/>
    <flow id="f126" from="7204407" to="9468017" begin="0" end="1000" probability="0.007630" departLane="free" departSpeed="max"/>
    <flow id="f127" from="14666641" to="106923" begin="0" end="1000" probability="0.007630" departLane="free" departSpeed="max"/>
    <flow id="f128" from="108024" to="20051520" begin="0" end="1000" probability="0.007630" departLane="free" departSpeed="max"/>
    <flow id="f129" from="4346942" to="105565" begin="0" end="1000" probability="0.007630" departLane="free" departSpeed="max"/>
    <flow id="f130" from="30145862" to="106853" begin="0" end="1000" probability="0.007630" departLane="free" departSpeed="max"/>
    <flow id="f131" from="106512" to="14303963" begin="0" end="1000" probability="0.007630" departLane="free" departSpeed="max"/>
    <flow id="f132" from="6322173" to="5479011" begin="0" end="1000" probability="0.007630" departLane="free" departSpeed="max"/>
    <flow id="f133" from="14639890" to="103111" begin="0" end="1000" probability="0.007630" departLane="free" departSpeed="max"/>
    <flow id="f134" from="30113636" to="20051520" begin="0" end="1000" probability="0.007630" departLane="free" departSpeed="max"/>
    <flow id="f135" from="14663902" to="105197" begin="0" end="1000" probability="0.007630" departLane="free" departSpeed="max"/>
    <flow id="f136" from="106707" to="105587" begin="0" end="1000" probability="0.007630" departLane="free" departSpeed="max"/>
    <flow id="f137" from="20052500" to="20050471" begin="0" end="1000" probability="0.007630" departLane="free" departSpeed="max"/>
    <flow id="f138" from="108279" to="14663726" begin="0" end="1000" probability="0.015261" departLane="free" departSpeed="max"/>
    <flow id="f139" from="30120535" to="30017744" begin="0" end="1000" probability="0.007630" departLane="free" departSpeed="max"/>
    <flow id="f140" from="30145805" to="105772" begin="0" end="1000" probability="0.007630" departLane="free" departSpeed="max"/>
    <flow id="f141" from="7514990" to="20050383" begin="0" end="1000" probability="0.015261" departLane="free" departSpeed="max"/>
    <flow id="f142" from="30113636" to="105064" begin="0" end="1000" probability="0.007630" departLane="free" departSpeed="max"/>
    <flow id="f143" from="105159" to="30053310" begin="0" end="1000" probability="0.007630" departLane="free" departSpeed="max"/>
    <flow id="f144" from="105091" to="30020059" begin="0" end="1000" probability="0.007630" departLane="free" departSpeed="max"/>
    <flow id="f145" from="30000650" to="30001509" begin="0" end="1000" probability="0.007630" departLane="free" departSpeed="max"/>
    <flow id="f146" from="106776" to="105207" begin="0" end="1000" probability="0.007630" departLane="free" departSpeed="max"/>
    <flow id="f147" from="108170" to="30000563" begin="0" end="1000" probability="0.007630" departLane="free" departSpeed="max"/>
    <flow id="f148" from="107639" to="104865" begin="0" end="1000" probability="0.007630" departLane="free" departSpeed="max"/>
    <flow id="f149" from="107875" to="4404475" begin="0" end="1000" probability="0.007630" departLane="free" departSpeed="max"/>
    <flow id="f150" from="14639890" to="30073908" begin="0" end="1000" probability="0.007630" departLane="free" departSpeed="max"/>
    <flow id="f151" from="3369767" to="30020081" begin="0" end="1000" probability="0.007630" departLane="free" departSpeed="max"/>
    <flow id="f152" from="106016" to="7472031" begin="0" end="1000" probability="0.007630" departLane="free" departSpeed="max"/>
    <flow id="f153" from="106816" to="30020038" begin="0" end="1000" probability="0.007630" departLane="free" departSpeed="max"/>
    <flow id="f154" from="6547241" to="105616" begin="0" end="1000" probability="0.007630" departLane="free" departSpeed="max"/>
    <flow id="f155" from="106276" to="30001510" begin="0" end="1000" probability="0.007630" departLane="free" departSpeed="max"/>
    <flow id="f156" from="107906" to="30000563" begin="0" end="1000" probability="0.007630" departLane="free" departSpeed="max"/>
    <flow id="f157" from="108132" to="30002265" begin="0" end="1000" probability="0.007630" departLane="free" departSpeed="max"/>
    <flow id="f158" from="106776" to="6242498" begin="0" end="1000" probability="0.007630" departLane="free" departSpeed="max"/>
    <flow id="f159" from="30145862" to="20050392" begin="0" end="1000" probability="0.007630" departLane="free" departSpeed="max"/>
    <flow id="f160" from="20051778" to="20050392" begin="0" end="1000" probability="0.007630" departLane="free" departSpeed="max"/>
    <flow id="f161" from="30000651" to="105795" begin="0" end="1000" probability="0.007630" departLane="free" departSpeed="max"/>
    <flow id="f162" from="30021446" to="30002274" begin="0" end="1000" probability="0.007630" departLane="free" departSpeed="max"/>
    <flow id="f163" from="5343631" to="105594" begin="0" end="1000" probability="0.007630" departLane="free" departSpeed="max"/>
    <flow id="f164" from="7206743" to="105197" begin="0" end="1000" probability="0.007630" departLane="free" departSpeed="max"/>
    <flow id="f165" from="6291862" to="6242753" begin="0" end="1000" probability="0.007630" departLane="free" departSpeed="max"/>
    <flow id="f166" from="107478" to="30053310" begin="0" end="1000" probability="0.007630" departLane="free" departSpeed="max"/>
    <flow id="f167" from="107618" to="107517" begin="0" end="1000" probability="0.007630" departLane="free" departSpeed="max"/>
    <flow id="f168" from="30044197" to="30080311" begin="0" end="1000" probability="0.007630" departLane="free" departSpeed="max"/>
    <flow id="f169" from="30089911" to="105565" begin="0" end="1000" probability="0.007630" departLane="free" departSpeed="max"/>
    <flow id="f170" from="3093037" to="103111" begin="0" end="1000" probability="0.007630" departLane="free" departSpeed="max"/>
    <flow id="f171" from="30000677" to="20051778" begin="0" end="1000" probability="0.007630" departLane="free" departSpeed="max"/>
    <flow id="f172" from="108423" to="20050383" begin="0" end="1000" probability="0.007630" departLane="free" departSpeed="max"/>
    <flow id="f173" from="105384" to="9467832" begin="0" end="1000" probability="0.007630" departLane="free" departSpeed="max"/>
    <flow id="f174" from="30145851" to="105674" begin="0" end="1000" probability="0.007630" departLane="free" departSpeed="max"/>
    <flow id="f175" from="107478" to="106640" begin="0" end="1000" probability="0.007630" departLane="free" departSpeed="max"/>
    <flow id="f176" from="30145805" to="7206749" begin="0" end="1000" probability="0.007630" departLane="free" departSpeed="max"/>
    <flow id="f177" from="30089905" to="104799" begin="0" end="1000" probability="0.007630" departLane="free" departSpeed="max"/>
    <flow id="f178" from="11484483" to="20195195" begin="0" end="1000" probability="0.007630" departLane="free" departSpeed="max"/>
    <flow id="f179" from="20050255" to="20051848" begin="0" end="1000" probability="0.007630" departLane="free" departSpeed="max"/>
    <flow id="f180" from="105159" to="30000571" begin="0" end="1000" probability="0.007630" departLane="free" departSpeed="max"/>
    <flow id="f181" from="104968" to="20052501" begin="0" end="1000" probability="0.007630" departLane="free" departSpeed="max"/>
    <flow id="f182" from="106304" to="30000650" begin="0" end="1000" probability="0.007630" departLane="free" departSpeed="max"/>
    <flow id="f183" from="436769" to="14303964" begin="0" end="1000" probability="0.007630" departLane="free" departSpeed="max"/>
    <flow id="f184" from="107973" to="30077074" begin="0" end="1000" probability="0.007630" departLane="free" departSpeed="max"/>
    <flow id="f185" from="30073908" to="20052069" begin="0" end="1000" probability="0.007630" departLane="free" departSpeed="max"/>
    <flow id="f186" from="105912" to="20051848" begin="0" end="1000" probability="0.007630" departLane="free" departSpeed="max"/>
    <flow id="f187" from="30113635" to="105207" begin="0" end="1000" probability="0.007630" departLane="free" departSpeed="max"/>
    <flow id="f188" from="438505" to="11165069" begin="0" end="1000" probability="0.007630" departLane="free" departSpeed="max"/>
    <flow id="f189" from="106439" to="6242498" begin="0" end="1000" probability="0.007630" departLane="free" departSpeed="max"/>
    <flow id="f190" from="104919" to="20050470" begin="0" end="1000" probability="0.007630" departLane="free" departSpeed="max"/>
    <flow id="f191" from="106707" to="106016" begin="0" end="1000" probability="0.007630" departLane="free" departSpeed="max"/>
    <flow id="f192" from="30113635" to="105772" begin="0" end="1000" probability="0.007630" departLane="free" departSpeed="max"/>
    <flow id="f193" from="30002273" to="6242753" begin="0" end="1000" probability="0.007630" departLane="free" departSpeed="max"/>
    <flow id="f194" from="30113635" to="30000562" begin="0" end="1000" probability="0.007630" departLane="free" departSpeed="max"/>
    <flow id="f195" from="7471720" to="105258" begin="0" end="1000" probability="0.007630" departLane="free" departSpeed="max"/>
    <flow id="f196" from="106707" to="30001509" begin="0" end="1000" probability="0.007630" departLane="free" departSpeed="max"/>
    <flow id="f197" from="108024" to="20051778" begin="0" end="1000" probability="0.007630" departLane="free" departSpeed="max"/>
    <flow id="f198" from="20051775" to="20050392" begin="0" end="1000" probability="0.007630" departLane="free" departSpeed="max"/>
    <flow id="f199" from="11484469" to="30000563" begin="0" end="1000" probability="0.007630" departLane="free" departSpeed="max"/>
    <flow id="f200" from="108024" to="5266630" begin="0" end="1000" probability="0.007630" departLane="free" departSpeed="max"/>
    <flow id="f201" from="30089898" to="106671" begin="0" end="1000" probability="0.007630" departLane="free" departSpeed="max"/>
    <flow id="f202" from="105772" to="4304190" begin="0" end="1000" probability="0.007630" departLane="free" departSpeed="max"/>
    <flow id="f203" from="103479" to="20050471" begin="0" end="1000" probability="0.007630" departLane="free" departSpeed="max"/>
    <flow id="f204" from="107920" to="30002273" begin="0" end="1000" probability="0.007630" departLane="free" departSpeed="max"/>
    <flow id="f205" from="11466578" to="30000574" begin="0" end="1000" probability="0.007630" departLane="free" departSpeed="max"/>
    <flow id="f206" from="30145859" to="105162" begin="0" end="1000" probability="0.007630" departLane="free" departSpeed="max"/>
    <flow id="f207" from="104919" to="103479" begin="0" end="1000" probability="0.007630" departLane="free" departSpeed="max"/>
    <flow id="f208" from="105207" to="20051520" begin="0" end="1000" probability="0.007630" departLane="free" departSpeed="max"/>
    <flow id="f209" from="108279" to="6242873" begin="0" end="1000" probability="0.007630" departLane="free" departSpeed="max"/>
    <flow id="f210" from="105649" to="9468156" begin="0" end="1000" probability="0.007630" departLane="free" departSpeed="max"/>
    <flow id="f211" from="30113635" to="20050407" begin="0" end="1000" probability="0.007630" departLane="free" departSpeed="max"/>
    <flow id="f212" from="105171" to="30002273" begin="0" end="1000" probability="0.007630" departLane="free" departSpeed="max"/>
    <flow id="f213" from="105384" to="103111" begin="0" end="1000" probability="0.007630" departLane="free" departSpeed="max"/>
    <flow id="f214" from="107014" to="105494" begin="0" end="1000" probability="0.007630" departLane="free" departSpeed="max"/>
    <flow id="f215" from="106062" to="14171574" begin="0" end="1000" probability="0.007630" departLane="free" departSpeed="max"/>
    <flow id="f216" from="30000657" to="105651" begin="0" end="1000" probability="0.007630" departLane="free" departSpeed="max"/>
    <flow id="f217" from="108024" to="105565" begin="0" end="1000" probability="0.007630" departLane="free" departSpeed="max"/>
    <flow id="f218" from="107385" to="20050379" begin="0" end="1000" probability="0.007630" departLane="free" departSpeed="max"/>
    <flow id="f219" from="107517" to="107438" begin="0" end="1000" probability="0.007630" departLane="free" departSpeed="max"/>
    <flow id="f220" from="7471766" to="7472038" begin="0" end="1000" probability="0.007630" departLane="free" departSpeed="max"/>
    <flow id="f221" from="107201" to="30085820" begin="0" end="1000" probability="0.007630" departLane="free" departSpeed="max"/>
    <flow id="f222" from="105462" to="30000571" begin="0" end="1000" probability="0.007630" departLane="free" departSpeed="max"/>
    <flow id="f223" from="30091214" to="14038219" begin="0" end="1000" probability="0.007630" departLane="free" departSpeed="max"/>
    <flow id="f224" from="107201" to="30080311" begin="0" end="1000" probability="0.007630" departLane="free" departSpeed="max"/>
    <flow id="f225" from="11466889" to="20050407" begin="0" end="1000" probability="0.007630" departLane="free" departSpeed="max"/>
    <flow id="f226" from="3814960" to="104968" begin="0" end="1000" probability="0.007630" departLane="free" departSpeed="max"/>
    <flow id="f227" from="108438" to="20050471" begin="0" end="1000" probability="0.007630" departLane="free" departSpeed="max"/>
    <flow id="f228" from="6291862" to="30080310" begin="0" end="1000" probability="0.007630" departLane="free" departSpeed="max"/>