<?xml version="1.0" encoding="UTF-8"?>

<!-- generated on 2026-05-15T11:41:07.750861+02:00 by Eclipse SUMO netconvert 1.26.0
<netconvertConfiguration xmlns:xsi="http://www.w3.org/2001/XMLSchema-instance" xsi:noNamespaceSchemaLocation="http://sumo.dlr.de/xsd/netconvertConfiguration.xsd">

    <input>
        <type-files value="data/sumo_networks/scarborough-agincourt/scarborough-agincourt_edge_types.typ.xml"/>
        <shapefile-prefix value="data/sumo_networks/scarborough-agincourt/scarborough-agincourt"/>
    </input>

    <output>
        <output-file value="data/sumo_networks/scarborough-agincourt/scarborough-agincourt_arterial.net.xml"/>
    </output>

    <projection>
        <proj.utm value="true"/>
    </projection>

    <processing>
        <geometry.min-radius.fix value="true"/>
    </processing>

    <tls_building>
        <tls.set value="13443090,13442440,13446551,13446373,13446075,13445746,13445476,13447360,13447007,13445219,13445612,13446996,13445257,13446333,13446799,13444601,13444794,13444318,13443302,13443837,13445713,13445461,13445899,13444158,13443751,13444019,13443726,13446226,13443562,13442179,13444260,13443775,13443374,13442967,13443046,13443970,13442123,13442003,13441814,13444409,13443752,13443916,13443081,13445764,13445474,13442540,13441740,13442279,13443314,14171575,13442867,13445956,13446623,13441903,13442033,13442651,13442443,13445134,13444341,13442145,13442762,13441856,13442139,13444748,13442882,14038170,13442499,13441919,13443239,13445197,13442363,13446213,13443377,13442071,13443298,13443052,13443753,13445277,13445796,13444733,13442983,13442549,13443156,13443404,14038257,13444194,30017743,14173872,13444492,13442771,13443533,13442146,13442802,13442801,30020021,30020057,13445987,13445384,13445288,30080309,30080306,13441950,13446434"/>
        <tls.rebuild value="true"/>
    </tls_building>

    <edge_removal>
        <remove-edges.isolated value="true"/>
    </edge_removal>

    <junctions>
        <no-turnarounds.except-turnlane value="true"/>
    </junctions>

    <formats>
        <shapefile.street-id value="LINK_ID"/>
        <shapefile.from-id value="REF_IN_ID"/>
        <shapefile.to-id value="NREF_IN_ID"/>
        <shapefile.type-id value="FUNC_CLASS"/>
        <shapefile.laneNumber value="nolanes"/>
        <shapefile.speed value="speed"/>
        <shapefile.name value="ST_NAME"/>
    </formats>

</netconvertConfiguration>
-->

<net version="1.20" junctionCornerDetail="5" limitTurnSpeed="5.50" xmlns:xsi="http://www.w3.org/2001/XMLSchema-instance" xsi:noNamespaceSchemaLocation="http://sumo.dlr.de/xsd/net_file.xsd">

    <location netOffset="-632816.86,-4847498.10" convBoundary="0.00,0.00,6024.59,6453.10" origBoundary="-79.348556,43.768185,-79.264767,43.825954" projParameter="+proj=utm +zone=17 +ellps=WGS84 +datum=WGS84 +units=m +no_defs"/>

    <type id="201200" priority="4" numLanes="3" speed="12.50" allow="emergency passenger taxi bus coach delivery truck trailer evehicle" oneway="1"/>
    <type id="201300" priority="3" numLanes="2" speed="12.50" allow="emergency passenger taxi bus coach delivery truck trailer evehicle" oneway="1"/>
    <type id="201600" priority="4" numLanes="1" speed="12.50" allow="emergency passenger taxi bus coach delivery truck trailer evehicle" oneway="1"/>
    <type id="201800" priority="4" numLanes="1" speed="25.00" allow="emergency passenger taxi bus coach delivery truck trailer evehicle" oneway="1"/>

    <edge id=":13441777_0" function="internal">
        <lane id=":13441777_0_0" index="0" allow="emergency passenger taxi bus coach delivery truck trailer evehicle" speed="12.50" length="0.29" shape="3697.91,6308.79 3698.15,6308.87"/>
        <lane id=":13441777_0_1" index="1" allow="emergency passenger taxi bus coach delivery truck trailer evehicle" speed="12.50" length="0.29" shape="3696.87,6311.82 3697.15,6311.91"/>
        <lane id=":13441777_0_2" index="2" allow="emergency passenger taxi bus coach delivery truck trailer evehicle" speed="12.50" length="0.29" shape="3695.83,6314.84 3696.14,6314.95"/>
    </edge>
    <edge id=":13441793_0" function="internal">
        <lane id=":13441793_0_0" index="0" allow="emergency passenger taxi bus coach delivery truck trailer evehicle" speed="12.50" length="0.28" shape="4168.28,6267.97 4168.21,6268.17"/>
        <lane id=":13441793_0_1" index="1" allow="emergency passenger taxi bus coach delivery truck trailer evehicle" speed="12.50" length="0.28" shape="4165.27,6266.88 4165.18,6267.14"/>
        <lane id=":13441793_0_2" index="2" allow="emergency passenger taxi bus coach delivery truck trailer evehicle" speed="12.50" length="0.28" shape="4162.26,6265.80 4162.15,6266.12"/>
    </edge>
    <edge id=":13441803_0" function="internal">
        <lane id=":13441803_0_0" index="0" allow="emergency passenger taxi bus coach delivery truck trailer evehicle" speed="12.50" length="0.28" shape="3442.53,6222.34 3442.74,6222.40"/>
        <lane id=":13441803_0_1" index="1" allow="emergency passenger taxi bus coach delivery truck trailer evehicle" speed="12.50" length="0.28" shape="3441.50,6225.37 3441.76,6225.45"/>
        <lane id=":13441803_0_2" index="2" allow="emergency passenger taxi bus coach delivery truck trailer evehicle" speed="12.50" length="0.28" shape="3440.47,6228.39 3440.79,6228.50"/>
    </edge>
    <edge id=":13441814_0" function="internal">
        <lane id=":13441814_0_0" index="0" allow="emergency passenger taxi bus coach delivery truck trailer evehicle" speed="3.90" length="2.60" shape="3324.43,6180.45 3324.29,6181.15 3324.41,6181.73 3324.79,6182.18 3325.43,6182.50"/>
        <lane id=":13441814_0_1" index="1" allow="emergency passenger taxi bus coach delivery truck trailer evehicle" speed="6.08" length="7.80" shape="3321.41,6179.39 3321.00,6181.49 3321.35,6183.21 3322.49,6184.56 3324.40,6185.53"/>
        <lane id=":13441814_0_2" index="2" allow="emergency passenger taxi bus coach delivery truck trailer evehicle" speed="7.65" length="13.00" shape="3318.39,6178.33 3317.70,6181.83 3318.30,6184.70 3320.19,6186.94 3323.36,6188.56"/>
    </edge>
    <edge id=":13441919_0" function="internal">
        <lane id=":13441919_0_0" index="0" allow="emergency passenger taxi bus coach delivery truck trailer evehicle" speed="12.50" length="0.40" shape="4304.85,5876.36 4304.65,5877.00"/>
        <lane id=":13441919_0_1" index="1" allow="emergency passenger taxi bus coach delivery truck trailer evehicle" speed="12.50" length="0.40" shape="4301.76,5875.53 4301.64,5875.91"/>
        <lane id=":13441919_0_2" index="2" allow="emergency passenger taxi bus coach delivery truck trailer evehicle" speed="12.50" length="0.40" shape="4298.67,5874.70 4298.63,5874.83"/>
    </edge>
    <edge id=":13442033_0" function="internal">
        <lane id=":13442033_0_0" index="0" allow="emergency passenger taxi bus coach delivery truck trailer evehicle" speed="12.50" length="0.30" shape="3520.29,5609.45 3520.20,5609.71"/>
        <lane id=":13442033_0_1" index="1" allow="emergency passenger taxi bus coach delivery truck trailer evehicle" speed="12.50" length="0.30" shape="3517.26,5608.42 3517.16,5608.70"/>
        <lane id=":13442033_0_2" index="2" allow="emergency passenger taxi bus coach delivery truck trailer evehicle" speed="12.50" length="0.30" shape="3514.23,5607.39 3514.13,5607.69"/>
    </edge>
    <edge id=":13442041_0" function="internal">
        <lane id=":13442041_0_0" index="0" allow="emergency passenger taxi bus coach delivery truck trailer evehicle" speed="12.50" length="0.30" shape="4399.40,5590.97 4399.30,5591.25"/>
        <lane id=":13442041_0_1" index="1" allow="emergency passenger taxi bus coach delivery truck trailer evehicle" speed="12.50" length="0.30" shape="4396.38,5589.92 4396.28,5590.21"/>
        <lane id=":13442041_0_2" index="2" allow="emergency passenger taxi bus coach delivery truck trailer evehicle" speed="12.50" length="0.30" shape="4393.35,5588.88 4393.25,5589.16"/>
    </edge>
    <edge id=":13442123_0" function="internal">
        <lane id=":13442123_0_0" index="0" allow="emergency passenger taxi bus coach delivery truck trailer evehicle" speed="6.49" length="9.03" shape="974.87,5367.44 974.41,5369.88 974.84,5371.87 976.17,5373.42 978.38,5374.53"/>
        <lane id=":13442123_0_1" index="1" allow="emergency passenger taxi bus coach delivery truck trailer evehicle" speed="7.99" length="14.22" shape="971.84,5366.41 971.12,5370.24 971.80,5373.38 973.88,5375.82 977.37,5377.56"/>
    </edge>
    <edge id=":13442123_2" function="internal">
        <lane id=":13442123_2_0" index="0" allow="emergency passenger taxi bus coach delivery truck trailer evehicle" speed="12.50" length="14.43" shape="964.72,5369.94 978.38,5374.53"/>
        <lane id=":13442123_2_1" index="1" allow="emergency passenger taxi bus coach delivery truck trailer evehicle" speed="12.50" length="14.43" shape="963.69,5372.97 977.37,5377.56"/>
        <lane id=":13442123_2_2" index="2" allow="emergency passenger taxi bus coach delivery truck trailer evehicle" speed="12.50" length="14.43" shape="962.65,5376.00 976.36,5380.60"/>
    </edge>
    <edge id=":13442139_0" function="internal">
        <lane id=":13442139_0_0" index="0" allow="emergency passenger taxi bus coach delivery truck trailer evehicle" speed="12.50" length="0.10" shape="2737.98,5345.03 2737.94,5345.17"/>
        <lane id=":13442139_0_1" index="1" allow="emergency passenger taxi bus coach delivery truck trailer evehicle" speed="12.50" length="0.10" shape="2734.91,5344.12 2734.89,5344.20"/>
        <lane id=":13442139_0_2" index="2" allow="emergency passenger taxi bus coach delivery truck trailer evehicle" speed="12.50" length="0.10" shape="2731.84,5343.21 2731.84,5343.24"/>
    </edge>
    <edge id=":13442145_0" function="internal">
        <lane id=":13442145_0_0" index="0" allow="emergency passenger taxi bus coach delivery truck trailer evehicle" speed="12.50" length="0.10" shape="1933.17,5324.23 1933.17,5324.23"/>
        <lane id=":13442145_0_1" index="1" allow="emergency passenger taxi bus coach delivery truck trailer evehicle" speed="12.50" length="0.10" shape="1929.98,5324.52 1929.98,5324.52"/>
        <lane id=":13442145_0_2" index="2" allow="emergency passenger taxi bus coach delivery truck trailer evehicle" speed="12.50" length="0.10" shape="1926.79,5324.82 1926.79,5324.82"/>
    </edge>
    <edge id=":13442179_0" function="internal">
        <lane id=":13442179_0_0" index="0" allow="emergency passenger taxi bus coach delivery truck trailer evehicle" speed="6.72" length="9.13" shape="590.10,5226.63 589.60,5229.20 589.93,5231.33 591.09,5232.99 593.08,5234.21"/>
        <lane id=":13442179_0_1" index="1" allow="emergency passenger taxi bus coach delivery truck trailer evehicle" speed="8.18" length="14.01" shape="587.06,5225.64 586.33,5229.52 586.89,5232.73 588.73,5235.28 591.86,5237.17"/>
        <lane id=":13442179_0_2" index="2" allow="emergency passenger taxi bus coach delivery truck trailer evehicle" speed="9.41" length="18.90" shape="584.01,5224.65 583.06,5229.83 583.84,5234.14 586.37,5237.57 590.64,5240.13"/>
    </edge>
    <edge id=":13442179_3" function="internal">
        <lane id=":13442179_3_0" index="0" allow="emergency passenger taxi bus coach delivery truck trailer evehicle" speed="12.50" length="16.82" shape="577.31,5227.94 593.08,5234.21"/>
        <lane id=":13442179_3_1" index="1" allow="emergency passenger taxi bus coach delivery truck trailer evehicle" speed="12.50" length="16.82" shape="576.24,5230.95 591.86,5237.17"/>
        <lane id=":13442179_3_2" index="2" allow="emergency passenger taxi bus coach delivery truck trailer evehicle" speed="12.50" length="16.82" shape="575.16,5233.96 590.64,5240.13"/>
    </edge>
    <edge id=":13442203_0" function="internal">
        <lane id=":13442203_0_0" index="0" allow="emergency passenger taxi bus coach delivery truck trailer evehicle" speed="12.50" length="0.17" shape="4535.86,5204.38 4535.90,5204.25"/>
        <lane id=":13442203_0_1" index="1" allow="emergency passenger taxi bus coach delivery truck trailer evehicle" speed="12.50" length="0.17" shape="4532.84,5203.32 4532.89,5203.17"/>
        <lane id=":13442203_0_2" index="2" allow="emergency passenger taxi bus coach delivery truck trailer evehicle" speed="12.50" length="0.17" shape="4529.82,5202.27 4529.88,5202.08"/>
    </edge>
    <edge id=":13442260_0" function="internal">
        <lane id=":13442260_0_0" index="0" allow="emergency passenger taxi bus coach delivery truck trailer evehicle" speed="12.50" length="0.13" shape="1946.17,5079.53 1946.12,5079.74"/>
        <lane id=":13442260_0_1" index="1" allow="emergency passenger taxi bus coach delivery truck trailer evehicle" speed="12.50" length="0.13" shape="1943.06,5078.80 1943.03,5078.92"/>
        <lane id=":13442260_0_2" index="2" allow="emergency passenger taxi bus coach delivery truck trailer evehicle" speed="12.50" length="0.13" shape="1939.95,5078.06 1939.94,5078.10"/>
    </edge>
    <edge id=":13442284_0" function="internal">
        <lane id=":13442284_0_0" index="0" allow="emergency passenger taxi bus coach delivery truck trailer evehicle" speed="12.50" length="0.30" shape="2840.71,5037.19 2840.61,5037.47"/>
        <lane id=":13442284_0_1" index="1" allow="emergency passenger taxi bus coach delivery truck trailer evehicle" speed="12.50" length="0.30" shape="2837.70,5036.11 2837.60,5036.40"/>
        <lane id=":13442284_0_2" index="2" allow="emergency passenger taxi bus coach delivery truck trailer evehicle" speed="12.50" length="0.30" shape="2834.69,5035.03 2834.59,5035.32"/>
    </edge>
    <edge id=":13442322_0" function="internal">
        <lane id=":13442322_0_0" index="0" allow="emergency passenger taxi bus coach delivery truck trailer evehicle" speed="12.50" length="0.30" shape="4618.28,4970.68 4618.18,4970.96"/>
        <lane id=":13442322_0_1" index="1" allow="emergency passenger taxi bus coach delivery truck trailer evehicle" speed="12.50" length="0.30" shape="4615.27,4969.61 4615.17,4969.89"/>
        <lane id=":13442322_0_2" index="2" allow="emergency passenger taxi bus coach delivery truck trailer evehicle" speed="12.50" length="0.30" shape="4612.25,4968.54 4612.15,4968.83"/>
    </edge>
    <edge id=":13442331_0" function="internal">
        <lane id=":13442331_0_0" index="0" allow="emergency passenger taxi bus coach delivery truck trailer evehicle" speed="6.52" length="8.99" shape="1672.22,4950.70 1674.63,4951.15 1676.62,4950.72 1678.18,4949.42 1679.32,4947.23"/>
    </edge>
    <edge id=":13442331_1" function="internal">
        <lane id=":13442331_1_0" index="0" allow="emergency passenger taxi bus coach delivery truck trailer evehicle" speed="12.50" length="11.12" shape="1672.22,4950.70 1682.74,4954.29"/>
    </edge>
    <edge id=":13442363_0" function="internal">
        <lane id=":13442363_0_0" index="0" allow="emergency passenger taxi bus coach delivery truck trailer evehicle" speed="6.53" length="9.06" shape="3763.84,4903.63 3763.36,4906.06 3763.76,4908.07 3765.06,4909.66 3767.26,4910.81"/>
    </edge>
    <edge id=":13442363_1" function="internal">
        <lane id=":13442363_1_0" index="0" allow="emergency passenger taxi bus coach delivery truck trailer evehicle" speed="12.50" length="14.41" shape="3763.84,4903.63 3759.06,4917.22"/>
        <lane id=":13442363_1_1" index="1" allow="emergency passenger taxi bus coach delivery truck trailer evehicle" speed="12.50" length="14.41" shape="3760.82,4902.57 3756.04,4916.16"/>
        <lane id=":13442363_1_2" index="2" allow="emergency passenger taxi bus coach delivery truck trailer evehicle" speed="12.50" length="14.41" shape="3757.80,4901.51 3753.02,4915.10"/>
    </edge>
    <edge id=":13442363_4" function="internal">
        <lane id=":13442363_4_0" index="0" allow="emergency passenger taxi bus coach delivery truck trailer evehicle" speed="12.50" length="17.59" shape="3750.68,4904.90 3767.26,4910.81"/>
        <lane id=":13442363_4_1" index="1" allow="emergency passenger taxi bus coach delivery truck trailer evehicle" speed="12.50" length="17.59" shape="3749.61,4907.92 3766.18,4913.82"/>
    </edge>
    <edge id=":13442363_6" function="internal">
        <lane id=":13442363_6_0" index="0" allow="emergency passenger taxi bus coach delivery truck trailer evehicle" speed="7.34" length="11.74" shape="3749.61,4907.92 3753.12,4909.54 3755.37,4911.45 3756.34,4913.66 3756.04,4916.16"/>
        <lane id=":13442363_6_1" index="1" allow="emergency passenger taxi bus coach delivery truck trailer evehicle" speed="6.52" length="9.06" shape="3749.61,4907.92 3751.80,4909.07 3753.10,4910.65 3753.51,4912.66 3753.02,4915.10"/>
    </edge>
    <edge id=":13442385_0" function="internal">
        <lane id=":13442385_0_0" index="0" allow="emergency passenger taxi bus coach delivery truck trailer evehicle" speed="6.86" length="8.93" shape="2864.09,4881.16 2862.02,4882.63 2860.77,4884.35 2860.36,4886.31 2860.77,4888.53"/>
    </edge>
    <edge id=":13442385_1" function="internal">
        <lane id=":13442385_1_0" index="0" allow="emergency passenger taxi bus coach delivery truck trailer evehicle" speed="12.50" length="11.27" shape="2856.31,4878.21 2857.84,4880.98 2858.86,4883.22 2859.73,4885.54 2860.77,4888.53"/>
    </edge>
    <edge id=":13442407_0" function="internal">
        <lane id=":13442407_0_0" index="0" allow="emergency passenger taxi bus coach delivery truck trailer evehicle" speed="12.50" length="10.72" shape="1714.02,4864.94 1711.09,4863.98 1708.96,4863.19 1706.85,4862.32 1704.01,4861.13"/>
    </edge>
    <edge id=":13442407_1" function="internal">
        <lane id=":13442407_1_0" index="0" allow="emergency passenger taxi bus coach delivery truck trailer evehicle" speed="6.57" length="8.81" shape="1707.07,4868.32 1707.56,4865.94 1707.21,4863.95 1706.03,4862.34 1704.01,4861.13"/>
    </edge>
    <edge id=":13442440_0" function="internal">
        <lane id=":13442440_0_0" index="0" allow="emergency passenger taxi bus coach delivery truck trailer evehicle" speed="12.50" length="0.28" shape="2034.85,4822.58 2034.73,4822.90"/>
        <lane id=":13442440_0_1" index="1" allow="emergency passenger taxi bus coach delivery truck trailer evehicle" speed="12.50" length="0.28" shape="2031.84,4821.51 2031.74,4821.77"/>
        <lane id=":13442440_0_2" index="2" allow="emergency passenger taxi bus coach delivery truck trailer evehicle" speed="12.50" length="0.28" shape="2028.82,4820.43 2028.74,4820.65"/>
    </edge>
    <edge id=":13442443_0" function="internal">
        <lane id=":13442443_0_0" index="0" allow="emergency passenger taxi bus coach delivery truck trailer evehicle" speed="12.50" length="0.29" shape="1166.14,4817.58 1166.04,4817.87"/>
        <lane id=":13442443_0_1" index="1" allow="emergency passenger taxi bus coach delivery truck trailer evehicle" speed="12.50" length="0.29" shape="1163.07,4816.64 1163.00,4816.89"/>
    </edge>
    <edge id=":13442474_0" function="internal">
        <lane id=":13442474_0_0" index="0" allow="emergency passenger taxi bus coach delivery truck trailer evehicle" speed="9.66" length="7.22" shape="2806.26,4768.26 2807.50,4769.90 2808.71,4770.69 2810.21,4771.12 2812.29,4771.71"/>
    </edge>
    <edge id=":13442474_1" function="internal">
        <lane id=":13442474_1_0" index="0" allow="emergency passenger taxi bus coach delivery truck trailer evehicle" speed="12.50" length="7.28" shape="2806.26,4768.26 2807.35,4770.12 2808.03,4771.43 2808.64,4772.78 2809.50,4774.76"/>
    </edge>
    <edge id=":13442499_0" function="internal">
        <lane id=":13442499_0_0" index="0" allow="emergency passenger taxi bus coach delivery truck trailer evehicle" speed="12.50" length="0.30" shape="2945.12,4744.00 2945.02,4744.29"/>
        <lane id=":13442499_0_1" index="1" allow="emergency passenger taxi bus coach delivery truck trailer evehicle" speed="12.50" length="0.30" shape="2942.10,4742.95 2942.00,4743.23"/>
        <lane id=":13442499_0_2" index="2" allow="emergency passenger taxi bus coach delivery truck trailer evehicle" speed="12.50" length="0.30" shape="2939.08,4741.90 2938.98,4742.17"/>
    </edge>
    <edge id=":13442540_0" function="internal">
        <lane id=":13442540_0_0" index="0" allow="emergency passenger taxi bus coach delivery truck trailer evehicle" speed="12.50" length="0.29" shape="767.42,4685.83 767.35,4686.06"/>
        <lane id=":13442540_0_1" index="1" allow="emergency passenger taxi bus coach delivery truck trailer evehicle" speed="12.50" length="0.29" shape="764.37,4684.86 764.29,4685.14"/>
        <lane id=":13442540_0_2" index="2" allow="emergency passenger taxi bus coach delivery truck trailer evehicle" speed="12.50" length="0.29" shape="761.32,4683.90 761.22,4684.22"/>
    </edge>
    <edge id=":13442541_0" function="internal">
        <lane id=":13442541_0_0" index="0" allow="emergency passenger taxi bus coach delivery truck trailer evehicle" speed="12.50" length="0.30" shape="3840.17,4686.96 3840.07,4687.24"/>
        <lane id=":13442541_0_1" index="1" allow="emergency passenger taxi bus coach delivery truck trailer evehicle" speed="12.50" length="0.30" shape="3837.15,4685.89 3837.05,4686.18"/>
        <lane id=":13442541_0_2" index="2" allow="emergency passenger taxi bus coach delivery truck trailer evehicle" speed="12.50" length="0.30" shape="3834.13,4684.83 3834.03,4685.11"/>
    </edge>
    <edge id=":13442549_0" function="internal">
        <lane id=":13442549_0_0" index="0" allow="emergency passenger taxi bus coach delivery truck trailer evehicle" speed="12.50" length="0.30" shape="3405.66,4667.83 3405.92,4667.97"/>
        <lane id=":13442549_0_1" index="1" allow="emergency passenger taxi bus coach delivery truck trailer evehicle" speed="12.50" length="0.30" shape="3404.13,4670.64 3404.40,4670.79"/>
    </edge>
    <edge id=":13442555_0" function="internal">
        <lane id=":13442555_0_0" index="0" allow="emergency passenger taxi bus coach delivery truck trailer evehicle" speed="12.50" length="0.30" shape="4726.35,4663.48 4726.24,4663.78"/>
        <lane id=":13442555_0_1" index="1" allow="emergency passenger taxi bus coach delivery truck trailer evehicle" speed="12.50" length="0.30" shape="4723.33,4662.43 4723.23,4662.71"/>
        <lane id=":13442555_0_2" index="2" allow="emergency passenger taxi bus coach delivery truck trailer evehicle" speed="12.50" length="0.30" shape="4720.31,4661.37 4720.21,4661.64"/>
    </edge>
    <edge id=":13442562_0" function="internal">
        <lane id=":13442562_0_0" index="0" allow="emergency passenger taxi bus coach delivery truck trailer evehicle" speed="12.50" length="0.30" shape="3364.65,4645.49 3364.92,4645.63"/>
        <lane id=":13442562_0_1" index="1" allow="emergency passenger taxi bus coach delivery truck trailer evehicle" speed="12.50" length="0.30" shape="3363.13,4648.30 3363.39,4648.44"/>
    </edge>
    <edge id=":13442572_0" function="internal">
        <lane id=":13442572_0_0" index="0" allow="emergency passenger taxi bus coach delivery truck trailer evehicle" speed="6.41" length="9.04" shape="2889.69,4638.65 2887.67,4637.19 2885.69,4636.76 2883.76,4637.35 2881.86,4638.96"/>
    </edge>
    <edge id=":13442572_1" function="internal">
        <lane id=":13442572_1_0" index="0" allow="emergency passenger taxi bus coach delivery truck trailer evehicle" speed="12.50" length="11.63" shape="2888.61,4629.60 2887.25,4632.50 2885.79,4634.62 2884.05,4636.57 2881.86,4638.96"/>
    </edge>
    <edge id=":13442607_0" function="internal">
        <lane id=":13442607_0_0" index="0" allow="emergency passenger taxi bus coach delivery truck trailer evehicle" speed="12.50" length="0.68" shape="3211.35,4569.93 3211.63,4570.04 3211.82,4570.12 3212.00,4570.22 3212.26,4570.38"/>
        <lane id=":13442607_0_1" index="1" allow="emergency passenger taxi bus coach delivery truck trailer evehicle" speed="12.50" length="0.68" shape="3210.25,4572.94 3210.34,4572.97 3210.41,4573.00 3210.47,4573.03 3210.55,4573.09"/>
    </edge>
    <edge id=":13442616_0" function="internal">
        <lane id=":13442616_0_0" index="0" allow="emergency passenger taxi bus coach delivery truck trailer evehicle" speed="12.50" length="0.10" shape="3886.44,4557.91 3886.44,4557.91"/>
        <lane id=":13442616_0_1" index="1" allow="emergency passenger taxi bus coach delivery truck trailer evehicle" speed="12.50" length="0.10" shape="3883.43,4556.81 3883.43,4556.81"/>
        <lane id=":13442616_0_2" index="2" allow="emergency passenger taxi bus coach delivery truck trailer evehicle" speed="12.50" length="0.10" shape="3880.42,4555.72 3880.42,4555.72"/>
    </edge>
    <edge id=":13442630_0" function="internal">
        <lane id=":13442630_0_0" index="0" allow="emergency passenger taxi bus coach delivery truck trailer evehicle" speed="6.44" length="9.03" shape="2943.65,4525.32 2943.10,4527.74 2943.47,4529.74 2944.76,4531.30 2946.97,4532.44"/>
    </edge>
    <edge id=":13442630_1" function="internal">
        <lane id=":13442630_1_0" index="0" allow="emergency passenger taxi bus coach delivery truck trailer evehicle" speed="12.50" length="11.34" shape="2943.65,4525.32 2942.51,4528.29 2941.64,4530.62 2940.85,4532.99 2939.96,4536.03"/>
    </edge>
    <edge id=":13442651_0" function="internal">
        <lane id=":13442651_0_0" index="0" allow="emergency passenger taxi bus coach delivery truck trailer evehicle" speed="5.39" length="5.99" shape="3030.19,4499.80 3029.40,4502.13 3029.00,4503.86 3028.99,4504.98 3029.38,4505.48"/>
    </edge>
    <edge id=":13442651_1" function="internal">
        <lane id=":13442651_1_0" index="0" allow="emergency passenger taxi bus coach delivery truck trailer evehicle" speed="12.50" length="14.54" shape="3030.19,4499.80 3025.25,4513.37"/>
        <lane id=":13442651_1_1" index="1" allow="emergency passenger taxi bus coach delivery truck trailer evehicle" speed="12.50" length="14.54" shape="3027.19,4498.68 3022.22,4512.34"/>
        <lane id=":13442651_1_2" index="2" allow="emergency passenger taxi bus coach delivery truck trailer evehicle" speed="12.50" length="14.54" shape="3024.19,4497.56 3019.19,4511.31"/>
    </edge>
    <edge id=":13442651_4" function="internal">
        <lane id=":13442651_4_0" index="0" allow="emergency passenger taxi bus coach delivery truck trailer evehicle" speed="12.50" length="13.32" shape="3016.81,4501.12 3029.38,4505.48"/>
        <lane id=":13442651_4_1" index="1" allow="emergency passenger taxi bus coach delivery truck trailer evehicle" speed="12.50" length="13.32" shape="3015.74,4504.13 3028.34,4508.51"/>
    </edge>
    <edge id=":13442651_6" function="internal">
        <lane id=":13442651_6_0" index="0" allow="emergency passenger taxi bus coach delivery truck trailer evehicle" speed="7.36" length="11.72" shape="3015.74,4504.13 3019.24,4505.75 3021.49,4507.65 3022.48,4509.85 3022.22,4512.34"/>
        <lane id=":13442651_6_1" index="1" allow="emergency passenger taxi bus coach delivery truck trailer evehicle" speed="6.54" length="9.05" shape="3015.74,4504.13 3017.92,4505.28 3019.23,4506.86 3019.65,4508.87 3019.19,4511.31"/>
    </edge>
    <edge id=":13442669_0" function="internal">
        <lane id=":13442669_0_0" index="0" allow="emergency passenger taxi bus coach delivery truck trailer evehicle" speed="12.50" length="11.19" shape="2955.13,4479.21 2965.66,4482.97"/>
        <lane id=":13442669_0_1" index="1" allow="emergency passenger taxi bus coach delivery truck trailer evehicle" speed="12.50" length="11.19" shape="2954.05,4482.22 2964.59,4485.98"/>
    </edge>
    <edge id=":13442669_2" function="internal">
        <lane id=":13442669_2_0" index="0" allow="emergency passenger taxi bus coach delivery truck trailer evehicle" speed="6.46" length="9.03" shape="2954.05,4482.22 2956.24,4483.38 2957.52,4484.97 2957.89,4486.97 2957.34,4489.39"/>
    </edge>
    <edge id=":13442693_0" function="internal">
        <lane id=":13442693_0_0" index="0" allow="emergency passenger taxi bus coach delivery truck trailer evehicle" speed="12.50" length="0.30" shape="843.62,4453.07 843.52,4453.36"/>
        <lane id=":13442693_0_1" index="1" allow="emergency passenger taxi bus coach delivery truck trailer evehicle" speed="12.50" length="0.30" shape="840.60,4452.02 840.50,4452.30"/>
        <lane id=":13442693_0_2" index="2" allow="emergency passenger taxi bus coach delivery truck trailer evehicle" speed="12.50" length="0.30" shape="837.58,4450.97 837.48,4451.25"/>
    </edge>
    <edge id=":13442721_0" function="internal">
        <lane id=":13442721_0_0" index="0" allow="emergency passenger taxi bus coach delivery truck trailer evehicle" speed="12.50" length="0.10" shape="3058.34,4424.35 3058.34,4424.35"/>
        <lane id=":13442721_0_1" index="1" allow="emergency passenger taxi bus coach delivery truck trailer evehicle" speed="12.50" length="0.10" shape="3055.34,4423.23 3055.34,4423.23"/>
        <lane id=":13442721_0_2" index="2" allow="emergency passenger taxi bus coach delivery truck trailer evehicle" speed="12.50" length="0.10" shape="3052.34,4422.11 3052.34,4422.11"/>
    </edge>
    <edge id=":13442757_0" function="internal">
        <lane id=":13442757_0_0" index="0" allow="emergency passenger taxi bus coach delivery truck trailer evehicle" speed="12.50" length="0.19" shape="2673.20,4379.07 2673.47,4379.16"/>
        <lane id=":13442757_0_1" index="1" allow="emergency passenger taxi bus coach delivery truck trailer evehicle" speed="12.50" length="0.19" shape="2672.27,4382.13 2672.36,4382.16"/>
    </edge>
    <edge id=":13442762_0" function="internal">
        <lane id=":13442762_0_0" index="0" allow="emergency passenger taxi bus coach delivery truck trailer evehicle" speed="12.50" length="0.41" shape="4829.25,4370.52 4829.15,4370.78"/>
        <lane id=":13442762_0_1" index="1" allow="emergency passenger taxi bus coach delivery truck trailer evehicle" speed="12.50" length="0.41" shape="4826.30,4369.27 4826.15,4369.65"/>