<configuration>
  <input>
    <net-file value="cologne3.net.xml"/>
    <route-files value="cologne3.rou.xml"/>
  </input>
  <time>
    <begin value="23512"/>
    <end value="37000"/>
  </time>
</configuration>
