<?xml version="1.0" encoding="UTF-8"?>
<configuration>
  <input>
    <net-file value="toronto_scarborough_agincourt_arterial.net.xml"/>
    <route-files value="toronto.empty.rou.xml"/>
  </input>
  <time>
    <begin value="0"/>
    <end value="3600"/>
  </time>
</configuration>
